1q2p_lig_WY2
                    3D
 Structure written by MMmdl.
 35 38  0  0  1  0            999 V2000
   30.1990   63.8670    4.1660 S   0  0  0  0  0  0
   30.8550   65.5020    3.7800 C   0  0  0  0  0  0
   31.9620   66.0330    4.3590 C   0  0  0  0  0  0
   32.6770   65.3390    5.3630 N   0  0  0  0  0  0
   33.0620   64.0460    5.6200 C   0  0  0  0  0  0
   32.6160   62.8680    5.0830 C   0  0  0  0  0  0
   33.2220   61.6870    5.6730 C   0  0  0  0  0  0
   34.3170   61.7170    6.2440 O   0  0  0  0  0  0
   31.5720   62.6720    4.0270 C   0  0  2  0  0  0
   32.2610   62.5850    2.6540 C   0  0  0  0  0  0
   32.2420   63.4560    1.6080 C   0  0  0  0  0  0
   33.0770   62.9550    0.6070 N   0  0  0  0  0  0
   33.5490   61.7770    1.1140 C   0  0  0  0  0  0
   33.0680   61.5680    2.3030 N   0  0  0  0  0  0
   34.5990   61.1830   -0.1810 S   0  0  0  0  0  0
   34.3590   62.5440   -1.3190 C   0  0  0  0  0  0
   33.5080   63.3500   -0.6740 C   0  0  0  0  0  0
   33.2200   64.5730   -1.5620 C   0  0  0  0  0  0
   33.8110   64.2600   -2.9550 C   0  0  0  0  0  0
   34.7580   63.0700   -2.6740 C   0  0  0  0  0  0
   32.4720   67.3100    3.9830 C   0  0  0  0  0  0
   33.4780   67.7470    4.5200 O   0  0  0  0  0  0
   31.8590   68.0390    3.0200 O   0  5  0  0  0  0
   30.3100   66.0680    3.0390 H   0  0  0  0  0  0
   33.0510   65.8420    6.1550 H   0  0  0  0  0  0
   33.8340   63.8470    6.3490 H   0  0  0  0  0  0
   31.1720   61.6590    4.0060 H   0  0  0  0  0  0
   31.6430   64.3530    1.6620 H   0  0  0  0  0  0
   32.1430   64.7320   -1.6240 H   0  0  0  0  0  0
   33.6920   65.4550   -1.1300 H   0  0  0  0  0  0
   33.0050   63.9990   -3.6420 H   0  0  0  0  0  0
   34.3400   65.1350   -3.3320 H   0  0  0  0  0  0
   35.7990   63.3900   -2.6470 H   0  0  0  0  0  0
   34.6380   62.2840   -3.4200 H   0  0  0  0  0  0
   32.7128   60.7360    5.6219 H   0  0  0  0  0  0
  1  2  1  0  0  0
  1  9  1  0  0  0
  2  3  2  0  0  0
  2 24  1  0  0  0
  3  4  1  0  0  0
  3 21  1  0  0  0
  4  5  1  0  0  0
  4 25  1  0  0  0
  5  6  2  0  0  0
  5 26  1  0  0  0
  6  7  1  0  0  0
  6  9  1  0  0  0
  7  8  2  0  0  0
  7 35  1  0  0  0
  9 10  1  0  0  0
  9 27  1  0  0  0
 10 11  2  0  0  0
 10 14  1  0  0  0
 11 12  1  0  0  0
 11 28  1  0  0  0
 12 13  1  0  0  0
 12 17  1  0  0  0
 13 14  2  0  0  0
 13 15  1  0  0  0
 15 16  1  0  0  0
 16 17  2  0  0  0
 16 20  1  0  0  0
 17 18  1  0  0  0
 18 19  1  0  0  0
 18 29  1  0  0  0
 18 30  1  0  0  0
 19 20  1  0  0  0
 19 31  1  0  0  0
 19 32  1  0  0  0
 20 33  1  0  0  0
 20 34  1  0  0  0
 21 22  2  0  0  0
 21 23  1  0  0  0
M  CHG  1  23  -1
M  END
> <s_m_entry_id>
1

> <s_m_entry_name>
P0AD64.1

$$$$
1ong_lig_WY4
                    3D
 Structure written by MMmdl.
 33 35  0  0  1  0            999 V2000
   30.1820   63.8520    4.3220 S   0  0  0  0  0  0
   30.8130   65.4400    3.9900 C   0  0  0  0  0  0
   31.9360   66.0030    4.4780 C   0  0  0  0  0  0
   32.9010   65.3230    5.2340 N   0  0  0  0  0  0
   33.1670   64.0480    5.5890 C   0  0  0  0  0  0
   32.5870   62.8880    5.1980 C   0  0  0  0  0  0
   33.1620   61.7450    5.8710 C   0  0  0  0  0  0
   34.1660   61.8780    6.5370 O   0  0  0  0  0  0
   32.2080   67.3730    4.1800 C   0  0  0  0  0  0
   33.3210   67.7950    4.4480 O   0  0  0  0  0  0
   31.2480   68.0930    3.6020 O   0  5  0  0  0  0
   31.5280   62.7000    4.1660 C   0  0  2  0  0  0
   32.1770   62.6200    2.7620 C   0  0  0  0  0  0
   33.1050   61.6850    2.4310 N   0  0  0  0  0  0
   33.5110   61.8840    1.2230 C   0  0  0  0  0  0
   32.8380   62.9890    0.7060 N   0  0  0  0  0  0
   32.0040   63.4310    1.6670 C   0  0  0  0  0  0
   34.5540   61.1210    0.4200 C   0  0  0  0  0  0
   35.0920   62.0220   -0.5710 O   0  0  0  0  0  0
   34.0910   62.6250   -1.3850 C   0  0  0  0  0  0
   33.1160   63.5610   -0.6330 C   0  0  0  0  0  0
   30.1860   65.9910    3.3050 H   0  0  0  0  0  0
   33.6470   65.8380    5.6800 H   0  0  0  0  0  0
   33.9570   63.8370    6.2950 H   0  0  0  0  0  0
   31.1350   61.6840    4.1300 H   0  0  0  0  0  0
   31.2930   64.2430    1.7040 H   0  0  0  0  0  0
   35.3450   60.7750    1.0860 H   0  0  0  0  0  0
   34.0850   60.2630   -0.0620 H   0  0  0  0  0  0
   34.5660   63.2270   -2.1600 H   0  0  0  0  0  0
   33.4820   61.8490   -1.8490 H   0  0  0  0  0  0
   32.1840   63.6480   -1.1920 H   0  0  0  0  0  0
   33.5650   64.5480   -0.5210 H   0  0  0  0  0  0
   32.6970   60.7745    5.7799 H   0  0  0  0  0  0
  1  2  1  0  0  0
  1 12  1  0  0  0
  2  3  2  0  0  0
  2 22  1  0  0  0
  3  4  1  0  0  0
  3  9  1  0  0  0
  4  5  1  0  0  0
  4 23  1  0  0  0
  5  6  2  0  0  0
  5 24  1  0  0  0
  6  7  1  0  0  0
  6 12  1  0  0  0
  7  8  2  0  0  0
  7 33  1  0  0  0
  9 10  2  0  0  0
  9 11  1  0  0  0
 12 13  1  0  0  0
 12 25  1  0  0  0
 13 14  1  0  0  0
 13 17  2  0  0  0
 14 15  2  0  0  0
 15 16  1  0  0  0
 15 18  1  0  0  0
 16 17  1  0  0  0
 16 21  1  0  0  0
 17 26  1  0  0  0
 18 19  1  0  0  0
 18 27  1  0  0  0
 18 28  1  0  0  0
 19 20  1  0  0  0
 20 21  1  0  0  0
 20 29  1  0  0  0
 20 30  1  0  0  0
 21 31  1  0  0  0
 21 32  1  0  0  0
M  CHG  1  11  -1
M  END
> <s_m_entry_id>
2

> <s_m_entry_name>
P0AD64.2

$$$$
2a3u_lig_TSL
                    3D
 Structure written by MMmdl.
 27 26  0  0  1  0            999 V2000
   29.6800   66.3520    2.2310 C   0  0  0  0  0  0
   31.1130   66.2640    2.7680 C   0  0  0  0  0  0
   32.2540   66.1420    1.3430 S   0  0  0  0  0  0
   32.0490   64.7100    0.9480 O   0  0  0  0  0  0
   33.5870   66.2590    2.0190 O   0  0  0  0  0  0
   31.4500   67.5350    3.5520 C   0  0  0  0  0  0
   31.2810   65.0180    3.6440 C   0  0  2  0  0  0
   30.3210   65.0680    4.8370 C   0  0  0  0  0  0
   29.2690   64.4310    4.8150 O   0  0  0  0  0  0
   30.5850   65.7600    5.8190 O   0  5  0  0  0  0
   32.6700   64.9270    4.1210 N   0  0  0  0  0  0
   33.1200   63.8510    4.7680 C   0  0  0  0  0  0
   32.4340   62.6630    4.9960 C   0  0  0  0  0  0
   32.9650   61.6750    5.8190 C   0  0  0  0  0  0
   34.0080   61.8510    6.4470 O   0  0  0  0  0  0
   28.9830   66.4250    3.0660 H   0  0  0  0  0  0
   29.5830   67.2330    1.5980 H   0  0  0  0  0  0
   29.4560   65.4590    1.6490 H   0  0  0  0  0  0
   31.8660   66.7460    0.5090 H   0  0  0  0  0  0
   32.4700   67.4690    3.9320 H   0  0  0  0  0  0
   31.3630   68.4020    2.8960 H   0  0  0  0  0  0
   30.7580   67.6420    4.3870 H   0  0  0  0  0  0
   31.0900   64.1260    3.0470 H   0  0  0  0  0  0
   33.2880   65.7070    3.9470 H   0  0  0  0  0  0
   34.1180   63.8470    5.1800 H   0  0  0  0  0  0
   31.4730   62.4960    4.5310 H   0  0  0  0  0  0
   32.4596   60.7257    5.9183 H   0  0  0  0  0  0
  1  2  1  0  0  0
  1 16  1  0  0  0
  1 17  1  0  0  0
  1 18  1  0  0  0
  2  3  1  0  0  0
  2  6  1  0  0  0
  2  7  1  0  0  0
  3  4  2  0  0  0
  3  5  2  0  0  0
  3 19  1  0  0  0
  6 20  1  0  0  0
  6 21  1  0  0  0
  6 22  1  0  0  0
  7  8  1  0  0  0
  7 11  1  0  0  0
  7 23  1  0  0  0
  8  9  2  0  0  0
  8 10  1  0  0  0
 11 12  1  0  0  0
 11 24  1  0  0  0
 12 13  2  0  0  0
 12 25  1  0  0  0
 13 14  1  0  0  0
 13 26  1  0  0  0
 14 15  2  0  0  0
 14 27  1  0  0  0
M  CHG  1  10  -1
M  END
> <s_m_entry_id>
3

> <s_m_entry_name>
P0AD64.3

$$$$
2a49_lig_TEM
                    3D
 Structure written by MMmdl.
 22 21  0  0  1  0            999 V2000
   34.5440   65.4960    2.9460 O   0  0  0  0  0  0
   34.1310   66.4020    3.6680 C   0  0  0  0  0  0
   32.9590   66.1730    4.5860 C   0  0  0  0  0  0
   32.4300   64.8150    4.3860 N   0  0  0  0  0  0
   32.9200   63.8160    5.0950 C   0  0  0  0  0  0
   32.4400   62.5220    4.9320 C   0  0  0  0  0  0
   32.9970   61.5140    5.7120 C   0  0  0  0  0  0
   33.9250   61.8020    6.4650 O   0  0  0  0  0  0
   34.7970   67.7800    3.6440 C   0  0  0  0  0  0
   36.2460   67.6970    4.1270 C   0  0  0  0  0  0
   36.8450   68.9940    4.0620 O   0  0  0  0  0  0
   33.2800   66.2860    5.6210 H   0  0  0  0  0  0
   32.1780   66.9010    4.3670 H   0  0  0  0  0  0
   31.6970   64.6440    3.7120 H   0  0  0  0  0  0
   33.7050   63.9980    5.8140 H   0  0  0  0  0  0
   31.6570   62.3230    4.2160 H   0  0  0  0  0  0
   34.7900   68.1700    2.6260 H   0  0  0  0  0  0
   34.2500   68.4600    4.2970 H   0  0  0  0  0  0
   36.2660   67.3390    5.1560 H   0  0  0  0  0  0
   36.8020   67.0080    3.4920 H   0  0  0  0  0  0
   37.7540   68.9430    4.3650 H   0  0  0  0  0  0
   32.6131   60.5066    5.6472 H   0  0  0  0  0  0
  1  2  2  0  0  0
  2  3  1  0  0  0
  2  9  1  0  0  0
  3  4  1  0  0  0
  3 12  1  0  0  0
  3 13  1  0  0  0
  4  5  1  0  0  0
  4 14  1  0  0  0
  5  6  2  0  0  0
  5 15  1  0  0  0
  6  7  1  0  0  0
  6 16  1  0  0  0
  7  8  2  0  0  0
  7 22  1  0  0  0
  9 10  1  0  0  0
  9 17  1  0  0  0
  9 18  1  0  0  0
 10 11  1  0  0  0
 10 19  1  0  0  0
 10 20  1  0  0  0
 11 21  1  0  0  0
M  END
> <s_m_entry_id>
4

> <s_m_entry_name>
P0AD64.4

$$$$
3opr_lig_SA2
                    3D
 Structure written by MMmdl.
 41 40  0  0  1  0            999 V2000
   35.2600   59.4760    3.6960 O   0  0  0  0  0  0
   35.9190   60.4460    3.2660 C   0  0  0  0  0  0
   37.1510   60.5880    3.4120 O   0  5  0  0  0  0
   35.1720   61.5150    2.5090 C   0  0  0  0  0  0
   35.4480   61.2350    1.0310 C   0  0  0  0  0  0
   34.3930   61.8540    0.1280 C   0  0  0  0  0  0
   34.4380   63.3550    0.2720 C   0  0  0  0  0  0
   35.3830   64.0120   -0.1470 O   0  0  0  0  0  0
   33.3450   64.0210    0.9340 O   0  0  0  0  0  0
   33.4140   65.4150    1.2390 C   0  0  0  0  0  0
   32.1720   65.8510    2.0010 C   0  0  1  0  0  0
   32.3970   67.4450    2.5000 S   0  0  0  0  0  0
   33.4760   67.5000    3.4620 O   0  0  0  0  0  0
   32.7730   68.2340    1.3600 O   0  0  0  0  0  0
   30.9860   65.7570    1.0430 C   0  0  0  0  0  0
   31.9370   64.8930    3.1910 C   0  0  2  0  0  0
   30.7620   65.2620    4.0580 C   0  0  0  0  0  0
   30.9100   66.0980    4.9700 O   0  0  0  0  0  0
   29.6710   64.7040    3.8500 O   0  5  0  0  0  0
   33.1300   64.7560    4.0230 N   0  0  0  0  0  0
   33.4360   63.6730    4.7270 C   0  0  0  0  0  0
   32.6360   62.6260    4.9410 C   0  0  0  0  0  0
   33.1630   61.5250    5.7360 C   0  0  0  0  0  0
   34.1980   61.6780    6.3650 O   0  0  0  0  0  0
   34.1070   61.4450    2.7360 H   0  0  0  0  0  0
   35.5420   62.4960    2.8050 H   0  0  0  0  0  0
   36.4180   61.6510    0.7580 H   0  0  0  0  0  0
   35.4530   60.1590    0.8600 H   0  0  0  0  0  0
   34.5940   61.5790   -0.9070 H   0  0  0  0  0  0
   33.4070   61.4880    0.4160 H   0  0  0  0  0  0
   34.2940   65.6110    1.8520 H   0  0  0  0  0  0
   33.4820   65.9870    0.3130 H   0  0  0  0  0  0
   31.4860   67.8060    2.9990 H   0  0  0  0  0  0
   30.0760   66.0640    1.5600 H   0  0  0  0  0  0
   31.1560   66.4130    0.1890 H   0  0  0  0  0  0
   30.8780   64.7300    0.6970 H   0  0  0  0  0  0
   31.8420   63.8710    2.8230 H   0  0  0  0  0  0
   33.7410   65.5600    4.0400 H   0  0  0  0  0  0
   34.4100   63.5850    5.1860 H   0  0  0  0  0  0
   31.6380   62.6180    4.5290 H   0  0  0  0  0  0
   32.6386   60.5813    5.7661 H   0  0  0  0  0  0
  1  2  2  0  0  0
  2  3  1  0  0  0
  2  4  1  0  0  0
  4  5  1  0  0  0
  4 25  1  0  0  0
  4 26  1  0  0  0
  5  6  1  0  0  0
  5 27  1  0  0  0
  5 28  1  0  0  0
  6  7  1  0  0  0
  6 29  1  0  0  0
  6 30  1  0  0  0
  7  8  2  0  0  0
  7  9  1  0  0  0
  9 10  1  0  0  0
 10 11  1  0  0  0
 10 31  1  0  0  0
 10 32  1  0  0  0
 11 12  1  0  0  0
 11 15  1  0  0  0
 11 16  1  0  0  0
 12 13  2  0  0  0
 12 14  2  0  0  0
 12 33  1  0  0  0
 15 34  1  0  0  0
 15 35  1  0  0  0
 15 36  1  0  0  0
 16 17  1  0  0  0
 16 20  1  0  0  0
 16 37  1  0  0  0
 17 18  2  0  0  0
 17 19  1  0  0  0
 20 21  1  0  0  0
 20 38  1  0  0  0
 21 22  2  0  0  0
 21 39  1  0  0  0
 22 23  1  0  0  0
 22 40  1  0  0  0
 23 24  2  0  0  0
 23 41  1  0  0  0
M  CHG  2   3  -1  19  -1
M  END
> <s_m_entry_id>
6

> <s_m_entry_name>
P0AD64.6

$$$$
2zd8_lig_MER
                    3D
 Structure written by MMmdl.
 33 33  0  0  1  0            999 V2000
   33.3170   61.5560    5.5680 C   0  0  0  0  0  0
   35.6200   63.3730    2.0590 C   0  0  0  0  0  0
   33.0070   62.2490    4.3130 C   0  0  1  0  0  0
   34.0380   62.2930    3.2520 C   0  0  2  0  0  0
   36.2740   62.4620    2.7960 C   0  0  0  0  0  0
   34.1640   61.9210    6.3340 O   0  0  0  0  0  0
   31.5760   62.4110    3.9330 C   0  0  2  0  0  0
   30.7750   62.0560    5.0540 O   0  0  0  0  0  0
   31.1860   61.4710    2.7970 C   0  0  0  0  0  0
   35.4030   61.9800    3.7670 N   0  0  0  0  0  0
   37.6260   62.0600    2.7530 C   0  0  0  0  0  0
   37.9720   61.2780    3.6470 O   0  5  0  0  0  0
   38.4610   62.3020    1.7420 O   0  0  0  0  0  0
   36.3230   64.3150    0.8180 S   0  0  0  0  0  0
   37.1230   65.5490    1.8840 C   0  0  0  0  0  0
   34.1820   63.6250    2.4310 C   0  0  1  0  0  0
   33.9370   64.8390    3.1220 C   0  0  0  0  0  0
   32.7366   60.6508    5.7485 H   0  0  0  0  0  0
   33.1587   63.2248    4.7687 H   0  0  0  0  0  0
   33.8366   61.4815    2.5504 H   0  0  0  0  0  0
   31.3503   63.4389    3.6520 H   0  0  0  0  0  0
   29.8746   62.2816    4.8730 H   0  0  0  0  0  0
   30.1143   61.5081    2.6014 H   0  0  0  0  0  0
   31.6811   61.7409    1.8635 H   0  0  0  0  0  0
   31.4452   60.4360    3.0254 H   0  0  0  0  0  0
   35.7196   61.1276    4.2176 H   0  0  0  0  0  0
   37.6601   66.2731    1.2736 H   0  0  0  0  0  0
   36.4033   66.0790    2.5032 H   0  0  0  0  0  0
   37.8443   65.0575    2.5380 H   0  0  0  0  0  0
   33.5621   63.5796    1.5350 H   0  0  0  0  0  0
   32.8990   64.9599    3.4189 H   0  0  0  0  0  0
   34.5599   64.9121    4.0154 H   0  0  0  0  0  0
   34.1689   65.6930    2.4874 H   0  0  0  0  0  0
  1  3  1  0  0  0
  1  6  2  0  0  0
  1 18  1  0  0  0
  2  5  2  0  0  0
  2 14  1  0  0  0
  2 16  1  0  0  0
  3  4  1  0  0  0
  3  7  1  0  0  0
  3 19  1  0  0  0
  4 10  1  0  0  0
  4 16  1  0  0  0
  4 20  1  0  0  0
  5 10  1  0  0  0
  5 11  1  0  0  0
  7  8  1  0  0  0
  7  9  1  0  0  0
  7 21  1  0  0  0
  8 22  1  0  0  0
  9 23  1  0  0  0
  9 24  1  0  0  0
  9 25  1  0  0  0
 10 26  1  0  0  0
 11 12  1  0  0  0
 11 13  2  0  0  0
 14 15  1  0  0  0
 15 27  1  0  0  0
 15 28  1  0  0  0
 15 29  1  0  0  0
 16 17  1  0  0  0
 16 30  1  0  0  0
 17 31  1  0  0  0
 17 32  1  0  0  0
 17 33  1  0  0  0
M  CHG  1  12  -1
M  END
> <s_m_entry_id>
7

> <s_m_entry_name>
P0AD64.5

> <s_m_job_name>
impact_mini

> <r_i_Potential_Energy-OPLS2005>
-144.066106066848

> <r_i_RMS_Derivative-OPLS2005>
3.33213096362194e-05

> <r_i_Max_Derivative-OPLS2005>
0.000105304032939735

> <r_i_Stretch_Energy-OPLS2005>
0.0228693503513778

> <r_i_Bend_Energy-OPLS2005>
9.65551589643635

> <r_i_Dihedral_Energy-OPLS2005>
4.23084137867796

> <r_i_LJ-14_Energy-OPLS2005>
1.74033640641917

> <r_i_El-14_Energy-OPLS2005>
3.4530039198711

> <r_i_Van_der_Waals_Energy-OPLS2005>
-0.470032156730049

> <r_i_Electrostatic_Energy-OPLS2005>
-162.698640861873

> <r_i_target_temperature>
298

$$$$
